Unknown
  JMolDraw 819 717323D
Generated by JMolDraw
  0  0                        999 V3000
M  V30 BEGIN CTAB
M  V30 COUNTS 7 7 0 0 0 
M  V30 BEGIN ATOM
M  V30 1 C 289.186919723452 415.7132125102907 -0.6931716206163685 0
M  V30 2 C 304.20731177391445 441.30649760221445 4.371245027999805 0
M  V30 3 C 329.8076051426574 425.72172347009763 7.2025927322014525 0
M  V30 4 C 314.7872130921993 400.1284383781723 2.1381760835876378 0
M  V30 5 C 269.8129097354787 414.1607631705248 -26.115720629457684 0
M  V30 6 C 303.70218031692167 467.914917561344 -5.0068109850384985 0
M  V30 7 C 317.7741764094991 372.56437961885865 11.810044320489197 0
M  V30 END ATOM
M  V30 BEGIN BOND
M  V30 1 1 1 2
M  V30 2 1 2 3
M  V30 3 1 3 4
M  V30 4 1 4 1
M  V30 5 1 1 5 CFG=1
M  V30 6 1 2 6
M  V30 7 1 4 7 CFG=3
M  V30 END BOND
M  V30 END CTAB
M  END
